examples/cigre/opendss/Stevenson1_VLN_Node.Txt

LINE-GROUND and LINE-LINE VOLTAGES BY BUS & NODE

Bus  Node    VLN (kV)   Angle      pu     Base kV    Node-Node   VLL (kV)  Angle      pu

1 .. 1      0.23094 /_    0.0         1     0.400        1-2        0.4 /_   30.0         1
   - 2      0.23094 /_ -120.0         1     0.400        2-3        0.4 /_  -90.0         1
   - 3      0.23094 /_  120.0         1     0.400        3-1        0.4 /_  150.0         1
2 .. 1      0.23985 /_   -1.1    1.0386     0.400        1-2    0.41543 /_   28.9    1.0386
   - 2      0.23985 /_ -121.1    1.0386     0.400        2-3    0.41543 /_  -91.1    1.0386
   - 3      0.23985 /_  118.9    1.0386     0.400        3-1    0.41543 /_  148.9    1.0386
